18
PDB File
 O   -0.987000    1.182000    0.000000
 C    0.300000    0.538000   -0.084000
 H    0.470000    0.175000   -1.098000
 H    0.379000   -0.283000    0.630000
 C   -2.045000    0.385000    0.207000
 C   -3.353000    1.198000    0.201000
 H   -4.216000    0.554000    0.374000
 C    1.334000    1.590000    0.262000
 C    2.790000    1.092000    0.206000
 H    3.492000    1.888000    0.458000
 F   -2.145000   -0.599000   -0.746000
 F   -1.963000   -0.282000    1.406000
 F    1.241000    2.658000   -0.591000
 F    1.122000    2.075000    1.525000
 F    3.056000    0.625000   -1.050000
 F    2.942000    0.050000    1.076000
 F   -3.481000    1.827000   -1.001000
 F   -3.289000    2.154000    1.170000
