8
PDB File
Li   -0.880000    1.367000    0.000000
Li   -1.073000    1.368000    2.752000
 S   -2.866000    1.767000    1.248000
 S   -3.380000   -0.293000    1.211000
 S   -1.796000   -1.313000    2.124000
 S   -0.158000   -1.313000    0.628000
 S    1.426000   -0.294000    1.541000
 S    0.914000    1.766000    1.504000
