18
PDB File
 C   -0.401000    0.788000    0.000000
 O   -0.401000    1.998000    0.000000
 O   -1.483000    0.005000    0.000000
 O    0.681000    0.005000    0.000000
 C   -2.766000    0.692000    0.000000
 C   -3.843000   -0.370000    0.000000
 H   -2.820000    1.329000   -0.887000
 H   -2.820000    1.330000    0.885000
 H   -4.825000    0.112000   -0.001000
 H   -3.769000   -1.003000   -0.888000
 H   -3.770000   -1.002000    0.888000
 C    1.964000    0.692000    0.000000
 C    3.041000   -0.370000   -0.001000
 H    2.018000    1.328000    0.887000
 H    2.018000    1.330000   -0.885000
 H    4.023000    0.112000   -0.001000
 H    2.968000   -1.003000    0.887000
 H    2.967000   -1.002000   -0.889000
