12
PDB File
 C   -0.747000    0.230000    0.000000
 O   -0.747000    1.439000    0.000000
 O   -1.828000   -0.554000    0.000000
 O    0.334000   -0.554000    0.000000
 C   -3.097000    0.136000    0.000000
 H   -3.850000   -0.650000    0.000000
 H   -3.195000    0.756000    0.893000
 H   -3.195000    0.756000   -0.893000
 C    1.603000    0.136000    0.000000
 H    1.701000    0.756000    0.893000
 H    2.356000   -0.650000    0.000000
 H    1.701000    0.756000   -0.893000
