19
PDB File
 C   -1.212000    0.242000    0.006000
 C   -2.479000    0.868000   -0.564000
 H   -0.377000    0.956000   -0.080000
 H   -1.346000    0.026000    1.079000
 C   -3.795000    0.278000   -0.078000
 H   -2.483000    1.926000   -0.278000
 H   -2.437000    0.834000   -1.658000
 H   -4.625000    0.930000   -0.395000
 H   -3.807000    0.248000    1.024000
 O   -0.882000   -0.950000   -0.695000
 O   -3.992000   -1.029000   -0.600000
 C    0.268000   -1.588000   -0.168000
 H    0.456000   -2.476000   -0.775000
 H    1.152000   -0.935000   -0.211000
 H    0.116000   -1.899000    0.877000
 C   -5.218000   -1.602000   -0.178000
 H   -6.080000   -1.001000   -0.505000
 H   -5.288000   -2.594000   -0.629000
 H   -5.261000   -1.706000    0.917000
